New Loadshape.Shape_1 npts=48 mInterval=30 mult=(file=data\load_data\Load1.txt) useactual=true
New Loadshape.Shape_2 npts=48 mInterval=30 mult=(file=data\load_data\Load2.txt) useactual=true
New Loadshape.Shape_3 npts=48 mInterval=30 mult=(file=data\load_data\Load3.txt) useactual=true
New Loadshape.Shape_4 npts=48 mInterval=30 mult=(file=data\load_data\Load4.txt) useactual=true
New Loadshape.Shape_5 npts=48 mInterval=30 mult=(file=data\load_data\Load5.txt) useactual=true
New Loadshape.Shape_6 npts=48 mInterval=30 mult=(file=data\load_data\Load6.txt) useactual=true
New Loadshape.Shape_7 npts=48 mInterval=30 mult=(file=data\load_data\Load7.txt) useactual=true
New Loadshape.Shape_8 npts=48 mInterval=30 mult=(file=data\load_data\Load8.txt) useactual=true
New Loadshape.Shape_9 npts=48 mInterval=30 mult=(file=data\load_data\Load9.txt) useactual=true
New Loadshape.Shape_10 npts=48 mInterval=30 mult=(file=data\load_data\Load10.txt) useactual=true
New Loadshape.Shape_11 npts=48 mInterval=30 mult=(file=data\load_data\Load11.txt) useactual=true
New Loadshape.Shape_12 npts=48 mInterval=30 mult=(file=data\load_data\Load12.txt) useactual=true
New Loadshape.Shape_13 npts=48 mInterval=30 mult=(file=data\load_data\Load13.txt) useactual=true
New Loadshape.Shape_14 npts=48 mInterval=30 mult=(file=data\load_data\Load14.txt) useactual=true
New Loadshape.Shape_15 npts=48 mInterval=30 mult=(file=data\load_data\Load15.txt) useactual=true
New Loadshape.Shape_16 npts=48 mInterval=30 mult=(file=data\load_data\Load16.txt) useactual=true
New Loadshape.Shape_17 npts=48 mInterval=30 mult=(file=data\load_data\Load17.txt) useactual=true
New Loadshape.Shape_18 npts=48 mInterval=30 mult=(file=data\load_data\Load18.txt) useactual=true
New Loadshape.Shape_19 npts=48 mInterval=30 mult=(file=data\load_data\Load19.txt) useactual=true
New Loadshape.Shape_20 npts=48 mInterval=30 mult=(file=data\load_data\Load20.txt) useactual=true
New Loadshape.Shape_21 npts=48 mInterval=30 mult=(file=data\load_data\Load21.txt) useactual=true
New Loadshape.Shape_22 npts=48 mInterval=30 mult=(file=data\load_data\Load22.txt) useactual=true
New Loadshape.Shape_23 npts=48 mInterval=30 mult=(file=data\load_data\Load23.txt) useactual=true
New Loadshape.Shape_24 npts=48 mInterval=30 mult=(file=data\load_data\Load24.txt) useactual=true
New Loadshape.Shape_25 npts=48 mInterval=30 mult=(file=data\load_data\Load25.txt) useactual=true
New Loadshape.Shape_26 npts=48 mInterval=30 mult=(file=data\load_data\Load26.txt) useactual=true
New Loadshape.Shape_27 npts=48 mInterval=30 mult=(file=data\load_data\Load27.txt) useactual=true
New Loadshape.Shape_28 npts=48 mInterval=30 mult=(file=data\load_data\Load28.txt) useactual=true
New Loadshape.Shape_29 npts=48 mInterval=30 mult=(file=data\load_data\Load29.txt) useactual=true
New Loadshape.Shape_30 npts=48 mInterval=30 mult=(file=data\load_data\Load30.txt) useactual=true
New Loadshape.Shape_31 npts=48 mInterval=30 mult=(file=data\load_data\Load31.txt) useactual=true
New Loadshape.Shape_32 npts=48 mInterval=30 mult=(file=data\load_data\Load32.txt) useactual=true
New Loadshape.Shape_33 npts=48 mInterval=30 mult=(file=data\load_data\Load33.txt) useactual=true
New Loadshape.Shape_34 npts=48 mInterval=30 mult=(file=data\load_data\Load34.txt) useactual=true
New Loadshape.Shape_35 npts=48 mInterval=30 mult=(file=data\load_data\Load35.txt) useactual=true
New Loadshape.Shape_36 npts=48 mInterval=30 mult=(file=data\load_data\Load36.txt) useactual=true
New Loadshape.Shape_37 npts=48 mInterval=30 mult=(file=data\load_data\Load37.txt) useactual=true
New Loadshape.Shape_38 npts=48 mInterval=30 mult=(file=data\load_data\Load38.txt) useactual=true
New Loadshape.Shape_39 npts=48 mInterval=30 mult=(file=data\load_data\Load39.txt) useactual=true
New Loadshape.Shape_40 npts=48 mInterval=30 mult=(file=data\load_data\Load40.txt) useactual=true
New Loadshape.Shape_41 npts=48 mInterval=30 mult=(file=data\load_data\Load41.txt) useactual=true
New Loadshape.Shape_42 npts=48 mInterval=30 mult=(file=data\load_data\Load42.txt) useactual=true
New Loadshape.Shape_43 npts=48 mInterval=30 mult=(file=data\load_data\Load43.txt) useactual=true
New Loadshape.Shape_44 npts=48 mInterval=30 mult=(file=data\load_data\Load44.txt) useactual=true
New Loadshape.Shape_45 npts=48 mInterval=30 mult=(file=data\load_data\Load45.txt) useactual=true
New Loadshape.Shape_46 npts=48 mInterval=30 mult=(file=data\load_data\Load46.txt) useactual=true
New Loadshape.Shape_47 npts=48 mInterval=30 mult=(file=data\load_data\Load47.txt) useactual=true
New Loadshape.Shape_48 npts=48 mInterval=30 mult=(file=data\load_data\Load48.txt) useactual=true
New Loadshape.Shape_49 npts=48 mInterval=30 mult=(file=data\load_data\Load49.txt) useactual=true
New Loadshape.Shape_50 npts=48 mInterval=30 mult=(file=data\load_data\Load50.txt) useactual=true
New Loadshape.Shape_51 npts=48 mInterval=30 mult=(file=data\load_data\Load51.txt) useactual=true
New Loadshape.Shape_52 npts=48 mInterval=30 mult=(file=data\load_data\Load52.txt) useactual=true
New Loadshape.Shape_53 npts=48 mInterval=30 mult=(file=data\load_data\Load53.txt) useactual=true
New Loadshape.Shape_54 npts=48 mInterval=30 mult=(file=data\load_data\Load54.txt) useactual=true
New Loadshape.Shape_55 npts=48 mInterval=30 mult=(file=data\load_data\Load55.txt) useactual=true
New Loadshape.Shape_56 npts=48 mInterval=30 mult=(file=data\load_data\Load56.txt) useactual=true
New Loadshape.Shape_57 npts=48 mInterval=30 mult=(file=data\load_data\Load57.txt) useactual=true
New Loadshape.Shape_58 npts=48 mInterval=30 mult=(file=data\load_data\Load58.txt) useactual=true
New Loadshape.Shape_59 npts=48 mInterval=30 mult=(file=data\load_data\Load59.txt) useactual=true
New Loadshape.Shape_60 npts=48 mInterval=30 mult=(file=data\load_data\Load60.txt) useactual=true
New Loadshape.Shape_61 npts=48 mInterval=30 mult=(file=data\load_data\Load61.txt) useactual=true
New Loadshape.Shape_62 npts=48 mInterval=30 mult=(file=data\load_data\Load62.txt) useactual=true
New Loadshape.Shape_63 npts=48 mInterval=30 mult=(file=data\load_data\Load63.txt) useactual=true
New Loadshape.Shape_64 npts=48 mInterval=30 mult=(file=data\load_data\Load64.txt) useactual=true
New Loadshape.Shape_65 npts=48 mInterval=30 mult=(file=data\load_data\Load65.txt) useactual=true
New Loadshape.Shape_66 npts=48 mInterval=30 mult=(file=data\load_data\Load66.txt) useactual=true
New Loadshape.Shape_67 npts=48 mInterval=30 mult=(file=data\load_data\Load67.txt) useactual=true
New Loadshape.Shape_68 npts=48 mInterval=30 mult=(file=data\load_data\Load68.txt) useactual=true
New Loadshape.Shape_69 npts=48 mInterval=30 mult=(file=data\load_data\Load69.txt) useactual=true
New Loadshape.Shape_70 npts=48 mInterval=30 mult=(file=data\load_data\Load70.txt) useactual=true
New Loadshape.Shape_71 npts=48 mInterval=30 mult=(file=data\load_data\Load71.txt) useactual=true
New Loadshape.Shape_72 npts=48 mInterval=30 mult=(file=data\load_data\Load72.txt) useactual=true
New Loadshape.Shape_73 npts=48 mInterval=30 mult=(file=data\load_data\Load73.txt) useactual=true
New Loadshape.Shape_74 npts=48 mInterval=30 mult=(file=data\load_data\Load74.txt) useactual=true
New Loadshape.Shape_75 npts=48 mInterval=30 mult=(file=data\load_data\Load75.txt) useactual=true
New Loadshape.Shape_76 npts=48 mInterval=30 mult=(file=data\load_data\Load76.txt) useactual=true
New Loadshape.Shape_77 npts=48 mInterval=30 mult=(file=data\load_data\Load77.txt) useactual=true
New Loadshape.Shape_78 npts=48 mInterval=30 mult=(file=data\load_data\Load78.txt) useactual=true
New Loadshape.Shape_79 npts=48 mInterval=30 mult=(file=data\load_data\Load79.txt) useactual=true
New Loadshape.Shape_80 npts=48 mInterval=30 mult=(file=data\load_data\Load80.txt) useactual=true
New Loadshape.Shape_81 npts=48 mInterval=30 mult=(file=data\load_data\Load81.txt) useactual=true
New Loadshape.Shape_82 npts=48 mInterval=30 mult=(file=data\load_data\Load82.txt) useactual=true
New Loadshape.Shape_83 npts=48 mInterval=30 mult=(file=data\load_data\Load83.txt) useactual=true
New Loadshape.Shape_84 npts=48 mInterval=30 mult=(file=data\load_data\Load84.txt) useactual=true
New Loadshape.Shape_85 npts=48 mInterval=30 mult=(file=data\load_data\Load85.txt) useactual=true
New Loadshape.Shape_86 npts=48 mInterval=30 mult=(file=data\load_data\Load86.txt) useactual=true
New Loadshape.Shape_87 npts=48 mInterval=30 mult=(file=data\load_data\Load87.txt) useactual=true
New Loadshape.Shape_88 npts=48 mInterval=30 mult=(file=data\load_data\Load88.txt) useactual=true
New Loadshape.Shape_89 npts=48 mInterval=30 mult=(file=data\load_data\Load89.txt) useactual=true
New Loadshape.Shape_90 npts=48 mInterval=30 mult=(file=data\load_data\Load90.txt) useactual=true
New Loadshape.Shape_91 npts=48 mInterval=30 mult=(file=data\load_data\Load91.txt) useactual=true
New Loadshape.Shape_92 npts=48 mInterval=30 mult=(file=data\load_data\Load92.txt) useactual=true
New Loadshape.Shape_93 npts=48 mInterval=30 mult=(file=data\load_data\Load93.txt) useactual=true
New Loadshape.Shape_94 npts=48 mInterval=30 mult=(file=data\load_data\Load94.txt) useactual=true
New Loadshape.Shape_95 npts=48 mInterval=30 mult=(file=data\load_data\Load95.txt) useactual=true
New Loadshape.Shape_96 npts=48 mInterval=30 mult=(file=data\load_data\Load96.txt) useactual=true
New Loadshape.Shape_97 npts=48 mInterval=30 mult=(file=data\load_data\Load97.txt) useactual=true
New Loadshape.Shape_98 npts=48 mInterval=30 mult=(file=data\load_data\Load98.txt) useactual=true
New Loadshape.Shape_99 npts=48 mInterval=30 mult=(file=data\load_data\Load99.txt) useactual=true
New Loadshape.Shape_100 npts=48 mInterval=30 mult=(file=data\load_data\Load100.txt) useactual=true
New Loadshape.Shape_101 npts=48 mInterval=30 mult=(file=data\load_data\Load101.txt) useactual=true
New Loadshape.Shape_102 npts=48 mInterval=30 mult=(file=data\load_data\Load102.txt) useactual=true
New Loadshape.Shape_103 npts=48 mInterval=30 mult=(file=data\load_data\Load103.txt) useactual=true
New Loadshape.Shape_104 npts=48 mInterval=30 mult=(file=data\load_data\Load104.txt) useactual=true
New Loadshape.Shape_105 npts=48 mInterval=30 mult=(file=data\load_data\Load105.txt) useactual=true
New Loadshape.Shape_106 npts=48 mInterval=30 mult=(file=data\load_data\Load106.txt) useactual=true
New Loadshape.Shape_107 npts=48 mInterval=30 mult=(file=data\load_data\Load107.txt) useactual=true
New Loadshape.Shape_108 npts=48 mInterval=30 mult=(file=data\load_data\Load108.txt) useactual=true
New Loadshape.Shape_109 npts=48 mInterval=30 mult=(file=data\load_data\Load109.txt) useactual=true
New Loadshape.Shape_110 npts=48 mInterval=30 mult=(file=data\load_data\Load110.txt) useactual=true
New Loadshape.Shape_111 npts=48 mInterval=30 mult=(file=data\load_data\Load111.txt) useactual=true
New Loadshape.Shape_112 npts=48 mInterval=30 mult=(file=data\load_data\Load112.txt) useactual=true
New Loadshape.Shape_113 npts=48 mInterval=30 mult=(file=data\load_data\Load113.txt) useactual=true
New Loadshape.Shape_114 npts=48 mInterval=30 mult=(file=data\load_data\Load114.txt) useactual=true
New Loadshape.Shape_115 npts=48 mInterval=30 mult=(file=data\load_data\Load115.txt) useactual=true
New Loadshape.Shape_116 npts=48 mInterval=30 mult=(file=data\load_data\Load116.txt) useactual=true
New Loadshape.Shape_117 npts=48 mInterval=30 mult=(file=data\load_data\Load117.txt) useactual=true
New Loadshape.Shape_118 npts=48 mInterval=30 mult=(file=data\load_data\Load118.txt) useactual=true
New Loadshape.Shape_119 npts=48 mInterval=30 mult=(file=data\load_data\Load119.txt) useactual=true
New Loadshape.Shape_120 npts=48 mInterval=30 mult=(file=data\load_data\Load120.txt) useactual=true
New Loadshape.Shape_121 npts=48 mInterval=30 mult=(file=data\load_data\Load121.txt) useactual=true
New Loadshape.Shape_122 npts=48 mInterval=30 mult=(file=data\load_data\Load122.txt) useactual=true
New Loadshape.Shape_123 npts=48 mInterval=30 mult=(file=data\load_data\Load123.txt) useactual=true
New Loadshape.Shape_124 npts=48 mInterval=30 mult=(file=data\load_data\Load124.txt) useactual=true
New Loadshape.Shape_125 npts=48 mInterval=30 mult=(file=data\load_data\Load125.txt) useactual=true
New Loadshape.Shape_126 npts=48 mInterval=30 mult=(file=data\load_data\Load126.txt) useactual=true
New Loadshape.Shape_127 npts=48 mInterval=30 mult=(file=data\load_data\Load127.txt) useactual=true
New Loadshape.Shape_128 npts=48 mInterval=30 mult=(file=data\load_data\Load128.txt) useactual=true
New Loadshape.Shape_129 npts=48 mInterval=30 mult=(file=data\load_data\Load129.txt) useactual=true
New Loadshape.Shape_130 npts=48 mInterval=30 mult=(file=data\load_data\Load130.txt) useactual=true
New Loadshape.Shape_131 npts=48 mInterval=30 mult=(file=data\load_data\Load131.txt) useactual=true
New Loadshape.Shape_132 npts=48 mInterval=30 mult=(file=data\load_data\Load132.txt) useactual=true
New Loadshape.Shape_133 npts=48 mInterval=30 mult=(file=data\load_data\Load133.txt) useactual=true
New Loadshape.Shape_134 npts=48 mInterval=30 mult=(file=data\load_data\Load134.txt) useactual=true
New Loadshape.Shape_135 npts=48 mInterval=30 mult=(file=data\load_data\Load135.txt) useactual=true
New Loadshape.Shape_136 npts=48 mInterval=30 mult=(file=data\load_data\Load136.txt) useactual=true
New Loadshape.Shape_137 npts=48 mInterval=30 mult=(file=data\load_data\Load137.txt) useactual=true
New Loadshape.Shape_138 npts=48 mInterval=30 mult=(file=data\load_data\Load138.txt) useactual=true
New Loadshape.Shape_139 npts=48 mInterval=30 mult=(file=data\load_data\Load139.txt) useactual=true
New Loadshape.Shape_140 npts=48 mInterval=30 mult=(file=data\load_data\Load140.txt) useactual=true
New Loadshape.Shape_141 npts=48 mInterval=30 mult=(file=data\load_data\Load141.txt) useactual=true
New Loadshape.Shape_142 npts=48 mInterval=30 mult=(file=data\load_data\Load142.txt) useactual=true
New Loadshape.Shape_143 npts=48 mInterval=30 mult=(file=data\load_data\Load143.txt) useactual=true
New Loadshape.Shape_144 npts=48 mInterval=30 mult=(file=data\load_data\Load144.txt) useactual=true
New Loadshape.Shape_145 npts=48 mInterval=30 mult=(file=data\load_data\Load145.txt) useactual=true
New Loadshape.Shape_146 npts=48 mInterval=30 mult=(file=data\load_data\Load146.txt) useactual=true
New Loadshape.Shape_147 npts=48 mInterval=30 mult=(file=data\load_data\Load147.txt) useactual=true
New Loadshape.Shape_148 npts=48 mInterval=30 mult=(file=data\load_data\Load148.txt) useactual=true
New Loadshape.Shape_149 npts=48 mInterval=30 mult=(file=data\load_data\Load149.txt) useactual=true
New Loadshape.Shape_150 npts=48 mInterval=30 mult=(file=data\load_data\Load150.txt) useactual=true
New Loadshape.Shape_151 npts=48 mInterval=30 mult=(file=data\load_data\Load151.txt) useactual=true
New Loadshape.Shape_152 npts=48 mInterval=30 mult=(file=data\load_data\Load152.txt) useactual=true
New Loadshape.Shape_153 npts=48 mInterval=30 mult=(file=data\load_data\Load153.txt) useactual=true
New Loadshape.Shape_154 npts=48 mInterval=30 mult=(file=data\load_data\Load154.txt) useactual=true
New Loadshape.Shape_155 npts=48 mInterval=30 mult=(file=data\load_data\Load155.txt) useactual=true
New Loadshape.Shape_156 npts=48 mInterval=30 mult=(file=data\load_data\Load156.txt) useactual=true
New Loadshape.Shape_157 npts=48 mInterval=30 mult=(file=data\load_data\Load157.txt) useactual=true
New Loadshape.Shape_158 npts=48 mInterval=30 mult=(file=data\load_data\Load158.txt) useactual=true
New Loadshape.Shape_159 npts=48 mInterval=30 mult=(file=data\load_data\Load159.txt) useactual=true
New Loadshape.Shape_160 npts=48 mInterval=30 mult=(file=data\load_data\Load160.txt) useactual=true
New Loadshape.Shape_161 npts=48 mInterval=30 mult=(file=data\load_data\Load161.txt) useactual=true
New Loadshape.Shape_162 npts=48 mInterval=30 mult=(file=data\load_data\Load162.txt) useactual=true
New Loadshape.Shape_163 npts=48 mInterval=30 mult=(file=data\load_data\Load163.txt) useactual=true
New Loadshape.Shape_164 npts=48 mInterval=30 mult=(file=data\load_data\Load164.txt) useactual=true
New Loadshape.Shape_165 npts=48 mInterval=30 mult=(file=data\load_data\Load165.txt) useactual=true
