New Loadshape.Solar_3 npts=48 mInterval=30 mult=(file=data\pv_data\pv_3.txt)
New Loadshape.Solar_8 npts=48 mInterval=30 mult=(file=data\pv_data\pv_8.txt)
New Loadshape.Solar_10 npts=48 mInterval=30 mult=(file=data\pv_data\pv_10.txt)
New Loadshape.Solar_14 npts=48 mInterval=30 mult=(file=data\pv_data\pv_14.txt)
New Loadshape.Solar_17 npts=48 mInterval=30 mult=(file=data\pv_data\pv_17.txt)
New Loadshape.Solar_20 npts=48 mInterval=30 mult=(file=data\pv_data\pv_20.txt)
New Loadshape.Solar_22 npts=48 mInterval=30 mult=(file=data\pv_data\pv_22.txt)
New Loadshape.Solar_32 npts=48 mInterval=30 mult=(file=data\pv_data\pv_32.txt)
New Loadshape.Solar_37 npts=48 mInterval=30 mult=(file=data\pv_data\pv_37.txt)
New Loadshape.Solar_44 npts=48 mInterval=30 mult=(file=data\pv_data\pv_44.txt)
New Loadshape.Solar_51 npts=48 mInterval=30 mult=(file=data\pv_data\pv_51.txt)
New Loadshape.Solar_61 npts=48 mInterval=30 mult=(file=data\pv_data\pv_61.txt)
New Loadshape.Solar_70 npts=48 mInterval=30 mult=(file=data\pv_data\pv_70.txt)
New Loadshape.Solar_75 npts=48 mInterval=30 mult=(file=data\pv_data\pv_75.txt)
New Loadshape.Solar_89 npts=48 mInterval=30 mult=(file=data\pv_data\pv_89.txt)
New Loadshape.Solar_101 npts=48 mInterval=30 mult=(file=data\pv_data\pv_101.txt)
New Loadshape.Solar_105 npts=48 mInterval=30 mult=(file=data\pv_data\pv_105.txt)
New Loadshape.Solar_117 npts=48 mInterval=30 mult=(file=data\pv_data\pv_117.txt)
New Loadshape.Solar_120 npts=48 mInterval=30 mult=(file=data\pv_data\pv_120.txt)
New Loadshape.Solar_127 npts=48 mInterval=30 mult=(file=data\pv_data\pv_127.txt)
New Loadshape.Solar_134 npts=48 mInterval=30 mult=(file=data\pv_data\pv_134.txt)
New Loadshape.Solar_135 npts=48 mInterval=30 mult=(file=data\pv_data\pv_135.txt)
New Loadshape.Solar_145 npts=48 mInterval=30 mult=(file=data\pv_data\pv_145.txt)
New Loadshape.Solar_156 npts=48 mInterval=30 mult=(file=data\pv_data\pv_156.txt)
New Loadshape.Solar_161 npts=48 mInterval=30 mult=(file=data\pv_data\pv_161.txt)
New "Tshape.Temp" npts=48 mInterval=30 temp=(File=C:\Users\24739070\DSSPy\benchmark_high_penetration_pv_cases\Data\PV_Data\Summer_Weekday\Temp.txt)
