New Loadshape.Shape_1 npts=48 mInterval=30 mult=(file=data\load_data\load1.txt) useactual=true
New Loadshape.Shape_2 npts=48 mInterval=30 mult=(file=data\load_data\load2.txt) useactual=true
New Loadshape.Shape_3 npts=48 mInterval=30 mult=(file=data\load_data\load3.txt) useactual=true
New Loadshape.Shape_4 npts=48 mInterval=30 mult=(file=data\load_data\load4.txt) useactual=true
New Loadshape.Shape_5 npts=48 mInterval=30 mult=(file=data\load_data\load5.txt) useactual=true
New Loadshape.Shape_6 npts=48 mInterval=30 mult=(file=data\load_data\load6.txt) useactual=true
New Loadshape.Shape_7 npts=48 mInterval=30 mult=(file=data\load_data\load7.txt) useactual=true
New Loadshape.Shape_8 npts=48 mInterval=30 mult=(file=data\load_data\load8.txt) useactual=true
New Loadshape.Shape_9 npts=48 mInterval=30 mult=(file=data\load_data\load9.txt) useactual=true
New Loadshape.Shape_10 npts=48 mInterval=30 mult=(file=data\load_data\load10.txt) useactual=true
New Loadshape.Shape_11 npts=48 mInterval=30 mult=(file=data\load_data\load11.txt) useactual=true
New Loadshape.Shape_12 npts=48 mInterval=30 mult=(file=data\load_data\load12.txt) useactual=true
New Loadshape.Shape_13 npts=48 mInterval=30 mult=(file=data\load_data\load13.txt) useactual=true
New Loadshape.Shape_14 npts=48 mInterval=30 mult=(file=data\load_data\load14.txt) useactual=true
New Loadshape.Shape_15 npts=48 mInterval=30 mult=(file=data\load_data\load15.txt) useactual=true
New Loadshape.Shape_16 npts=48 mInterval=30 mult=(file=data\load_data\load16.txt) useactual=true
New Loadshape.Shape_17 npts=48 mInterval=30 mult=(file=data\load_data\load17.txt) useactual=true
New Loadshape.Shape_18 npts=48 mInterval=30 mult=(file=data\load_data\load18.txt) useactual=true
New Loadshape.Shape_19 npts=48 mInterval=30 mult=(file=data\load_data\load19.txt) useactual=true
New Loadshape.Shape_20 npts=48 mInterval=30 mult=(file=data\load_data\load20.txt) useactual=true
New Loadshape.Shape_21 npts=48 mInterval=30 mult=(file=data\load_data\load21.txt) useactual=true
New Loadshape.Shape_22 npts=48 mInterval=30 mult=(file=data\load_data\load22.txt) useactual=true
New Loadshape.Shape_23 npts=48 mInterval=30 mult=(file=data\load_data\load23.txt) useactual=true
New Loadshape.Shape_24 npts=48 mInterval=30 mult=(file=data\load_data\load24.txt) useactual=true
New Loadshape.Shape_25 npts=48 mInterval=30 mult=(file=data\load_data\load25.txt) useactual=true
New Loadshape.Shape_26 npts=48 mInterval=30 mult=(file=data\load_data\load26.txt) useactual=true
New Loadshape.Shape_27 npts=48 mInterval=30 mult=(file=data\load_data\load27.txt) useactual=true
New Loadshape.Shape_28 npts=48 mInterval=30 mult=(file=data\load_data\load28.txt) useactual=true
New Loadshape.Shape_29 npts=48 mInterval=30 mult=(file=data\load_data\load29.txt) useactual=true
New Loadshape.Shape_30 npts=48 mInterval=30 mult=(file=data\load_data\load30.txt) useactual=true
New Loadshape.Shape_31 npts=48 mInterval=30 mult=(file=data\load_data\load31.txt) useactual=true
New Loadshape.Shape_32 npts=48 mInterval=30 mult=(file=data\load_data\load32.txt) useactual=true
New Loadshape.Shape_33 npts=48 mInterval=30 mult=(file=data\load_data\load33.txt) useactual=true
New Loadshape.Shape_34 npts=48 mInterval=30 mult=(file=data\load_data\load34.txt) useactual=true
New Loadshape.Shape_35 npts=48 mInterval=30 mult=(file=data\load_data\load35.txt) useactual=true
New Loadshape.Shape_36 npts=48 mInterval=30 mult=(file=data\load_data\load36.txt) useactual=true
New Loadshape.Shape_37 npts=48 mInterval=30 mult=(file=data\load_data\load37.txt) useactual=true
New Loadshape.Shape_38 npts=48 mInterval=30 mult=(file=data\load_data\load38.txt) useactual=true
New Loadshape.Shape_39 npts=48 mInterval=30 mult=(file=data\load_data\load39.txt) useactual=true
New Loadshape.Shape_40 npts=48 mInterval=30 mult=(file=data\load_data\load40.txt) useactual=true
New Loadshape.Shape_41 npts=48 mInterval=30 mult=(file=data\load_data\load41.txt) useactual=true
New Loadshape.Shape_42 npts=48 mInterval=30 mult=(file=data\load_data\load42.txt) useactual=true
New Loadshape.Shape_43 npts=48 mInterval=30 mult=(file=data\load_data\load43.txt) useactual=true
New Loadshape.Shape_44 npts=48 mInterval=30 mult=(file=data\load_data\load44.txt) useactual=true
New Loadshape.Shape_45 npts=48 mInterval=30 mult=(file=data\load_data\load45.txt) useactual=true
New Loadshape.Shape_46 npts=48 mInterval=30 mult=(file=data\load_data\load46.txt) useactual=true
New Loadshape.Shape_47 npts=48 mInterval=30 mult=(file=data\load_data\load47.txt) useactual=true
New Loadshape.Shape_48 npts=48 mInterval=30 mult=(file=data\load_data\load48.txt) useactual=true
New Loadshape.Shape_49 npts=48 mInterval=30 mult=(file=data\load_data\load49.txt) useactual=true
New Loadshape.Shape_50 npts=48 mInterval=30 mult=(file=data\load_data\load50.txt) useactual=true
New Loadshape.Shape_51 npts=48 mInterval=30 mult=(file=data\load_data\load51.txt) useactual=true
New Loadshape.Shape_52 npts=48 mInterval=30 mult=(file=data\load_data\load52.txt) useactual=true
New Loadshape.Shape_53 npts=48 mInterval=30 mult=(file=data\load_data\load53.txt) useactual=true
New Loadshape.Shape_54 npts=48 mInterval=30 mult=(file=data\load_data\load54.txt) useactual=true
New Loadshape.Shape_55 npts=48 mInterval=30 mult=(file=data\load_data\load55.txt) useactual=true
New Loadshape.Shape_56 npts=48 mInterval=30 mult=(file=data\load_data\load56.txt) useactual=true
New Loadshape.Shape_57 npts=48 mInterval=30 mult=(file=data\load_data\load57.txt) useactual=true
New Loadshape.Shape_58 npts=48 mInterval=30 mult=(file=data\load_data\load58.txt) useactual=true
New Loadshape.Shape_59 npts=48 mInterval=30 mult=(file=data\load_data\load59.txt) useactual=true
New Loadshape.Shape_60 npts=48 mInterval=30 mult=(file=data\load_data\load60.txt) useactual=true
New Loadshape.Shape_61 npts=48 mInterval=30 mult=(file=data\load_data\load61.txt) useactual=true
New Loadshape.Shape_62 npts=48 mInterval=30 mult=(file=data\load_data\load62.txt) useactual=true
New Loadshape.Shape_63 npts=48 mInterval=30 mult=(file=data\load_data\load63.txt) useactual=true
New Loadshape.Shape_64 npts=48 mInterval=30 mult=(file=data\load_data\load64.txt) useactual=true
New Loadshape.Shape_65 npts=48 mInterval=30 mult=(file=data\load_data\load65.txt) useactual=true
New Loadshape.Shape_66 npts=48 mInterval=30 mult=(file=data\load_data\load66.txt) useactual=true
New Loadshape.Shape_67 npts=48 mInterval=30 mult=(file=data\load_data\load67.txt) useactual=true
New Loadshape.Shape_68 npts=48 mInterval=30 mult=(file=data\load_data\load68.txt) useactual=true
New Loadshape.Shape_69 npts=48 mInterval=30 mult=(file=data\load_data\load69.txt) useactual=true
New Loadshape.Shape_70 npts=48 mInterval=30 mult=(file=data\load_data\load70.txt) useactual=true
New Loadshape.Shape_71 npts=48 mInterval=30 mult=(file=data\load_data\load71.txt) useactual=true
New Loadshape.Shape_72 npts=48 mInterval=30 mult=(file=data\load_data\load72.txt) useactual=true
New Loadshape.Shape_73 npts=48 mInterval=30 mult=(file=data\load_data\load73.txt) useactual=true
New Loadshape.Shape_74 npts=48 mInterval=30 mult=(file=data\load_data\load74.txt) useactual=true
New Loadshape.Shape_75 npts=48 mInterval=30 mult=(file=data\load_data\load75.txt) useactual=true
New Loadshape.Shape_76 npts=48 mInterval=30 mult=(file=data\load_data\load76.txt) useactual=true
New Loadshape.Shape_77 npts=48 mInterval=30 mult=(file=data\load_data\load77.txt) useactual=true
New Loadshape.Shape_78 npts=48 mInterval=30 mult=(file=data\load_data\load78.txt) useactual=true
New Loadshape.Shape_79 npts=48 mInterval=30 mult=(file=data\load_data\load79.txt) useactual=true
New Loadshape.Shape_80 npts=48 mInterval=30 mult=(file=data\load_data\load80.txt) useactual=true
New Loadshape.Shape_81 npts=48 mInterval=30 mult=(file=data\load_data\load81.txt) useactual=true
New Loadshape.Shape_82 npts=48 mInterval=30 mult=(file=data\load_data\load82.txt) useactual=true
New Loadshape.Shape_83 npts=48 mInterval=30 mult=(file=data\load_data\load83.txt) useactual=true
New Loadshape.Shape_84 npts=48 mInterval=30 mult=(file=data\load_data\load84.txt) useactual=true
New Loadshape.Shape_85 npts=48 mInterval=30 mult=(file=data\load_data\load85.txt) useactual=true
New Loadshape.Shape_86 npts=48 mInterval=30 mult=(file=data\load_data\load86.txt) useactual=true
New Loadshape.Shape_87 npts=48 mInterval=30 mult=(file=data\load_data\load87.txt) useactual=true
New Loadshape.Shape_88 npts=48 mInterval=30 mult=(file=data\load_data\load88.txt) useactual=true
New Loadshape.Shape_89 npts=48 mInterval=30 mult=(file=data\load_data\load89.txt) useactual=true
New Loadshape.Shape_90 npts=48 mInterval=30 mult=(file=data\load_data\load90.txt) useactual=true
New Loadshape.Shape_91 npts=48 mInterval=30 mult=(file=data\load_data\load91.txt) useactual=true
New Loadshape.Shape_92 npts=48 mInterval=30 mult=(file=data\load_data\load92.txt) useactual=true
New Loadshape.Shape_93 npts=48 mInterval=30 mult=(file=data\load_data\load93.txt) useactual=true
New Loadshape.Shape_94 npts=48 mInterval=30 mult=(file=data\load_data\load94.txt) useactual=true
New Loadshape.Shape_95 npts=48 mInterval=30 mult=(file=data\load_data\load95.txt) useactual=true
New Loadshape.Shape_96 npts=48 mInterval=30 mult=(file=data\load_data\load96.txt) useactual=true
New Loadshape.Shape_97 npts=48 mInterval=30 mult=(file=data\load_data\load97.txt) useactual=true
New Loadshape.Shape_98 npts=48 mInterval=30 mult=(file=data\load_data\load98.txt) useactual=true
New Loadshape.Shape_99 npts=48 mInterval=30 mult=(file=data\load_data\load99.txt) useactual=true
New Loadshape.Shape_100 npts=48 mInterval=30 mult=(file=data\load_data\load100.txt) useactual=true
New Loadshape.Shape_101 npts=48 mInterval=30 mult=(file=data\load_data\load101.txt) useactual=true
New Loadshape.Shape_102 npts=48 mInterval=30 mult=(file=data\load_data\load102.txt) useactual=true
New Loadshape.Shape_103 npts=48 mInterval=30 mult=(file=data\load_data\load103.txt) useactual=true
New Loadshape.Shape_104 npts=48 mInterval=30 mult=(file=data\load_data\load104.txt) useactual=true
New Loadshape.Shape_105 npts=48 mInterval=30 mult=(file=data\load_data\load105.txt) useactual=true
New Loadshape.Shape_106 npts=48 mInterval=30 mult=(file=data\load_data\load106.txt) useactual=true
New Loadshape.Shape_107 npts=48 mInterval=30 mult=(file=data\load_data\load107.txt) useactual=true
New Loadshape.Shape_108 npts=48 mInterval=30 mult=(file=data\load_data\load108.txt) useactual=true
New Loadshape.Shape_109 npts=48 mInterval=30 mult=(file=data\load_data\load109.txt) useactual=true
New Loadshape.Shape_110 npts=48 mInterval=30 mult=(file=data\load_data\load110.txt) useactual=true
New Loadshape.Shape_111 npts=48 mInterval=30 mult=(file=data\load_data\load111.txt) useactual=true
New Loadshape.Shape_112 npts=48 mInterval=30 mult=(file=data\load_data\load112.txt) useactual=true
New Loadshape.Shape_113 npts=48 mInterval=30 mult=(file=data\load_data\load113.txt) useactual=true
New Loadshape.Shape_114 npts=48 mInterval=30 mult=(file=data\load_data\load114.txt) useactual=true
New Loadshape.Shape_115 npts=48 mInterval=30 mult=(file=data\load_data\load115.txt) useactual=true
New Loadshape.Shape_116 npts=48 mInterval=30 mult=(file=data\load_data\load116.txt) useactual=true
New Loadshape.Shape_117 npts=48 mInterval=30 mult=(file=data\load_data\load117.txt) useactual=true
New Loadshape.Shape_118 npts=48 mInterval=30 mult=(file=data\load_data\load118.txt) useactual=true
New Loadshape.Shape_119 npts=48 mInterval=30 mult=(file=data\load_data\load119.txt) useactual=true
New Loadshape.Shape_120 npts=48 mInterval=30 mult=(file=data\load_data\load120.txt) useactual=true
New Loadshape.Shape_121 npts=48 mInterval=30 mult=(file=data\load_data\load121.txt) useactual=true
New Loadshape.Shape_122 npts=48 mInterval=30 mult=(file=data\load_data\load122.txt) useactual=true
New Loadshape.Shape_123 npts=48 mInterval=30 mult=(file=data\load_data\load123.txt) useactual=true
New Loadshape.Shape_124 npts=48 mInterval=30 mult=(file=data\load_data\load124.txt) useactual=true
New Loadshape.Shape_125 npts=48 mInterval=30 mult=(file=data\load_data\load125.txt) useactual=true
New Loadshape.Shape_126 npts=48 mInterval=30 mult=(file=data\load_data\load126.txt) useactual=true
New Loadshape.Shape_127 npts=48 mInterval=30 mult=(file=data\load_data\load127.txt) useactual=true
New Loadshape.Shape_128 npts=48 mInterval=30 mult=(file=data\load_data\load128.txt) useactual=true
New Loadshape.Shape_129 npts=48 mInterval=30 mult=(file=data\load_data\load129.txt) useactual=true
New Loadshape.Shape_130 npts=48 mInterval=30 mult=(file=data\load_data\load130.txt) useactual=true
New Loadshape.Shape_131 npts=48 mInterval=30 mult=(file=data\load_data\load131.txt) useactual=true
New Loadshape.Shape_132 npts=48 mInterval=30 mult=(file=data\load_data\load132.txt) useactual=true
New Loadshape.Shape_133 npts=48 mInterval=30 mult=(file=data\load_data\load133.txt) useactual=true
New Loadshape.Shape_134 npts=48 mInterval=30 mult=(file=data\load_data\load134.txt) useactual=true
New Loadshape.Shape_135 npts=48 mInterval=30 mult=(file=data\load_data\load135.txt) useactual=true
New Loadshape.Shape_136 npts=48 mInterval=30 mult=(file=data\load_data\load136.txt) useactual=true
New Loadshape.Shape_137 npts=48 mInterval=30 mult=(file=data\load_data\load137.txt) useactual=true
New Loadshape.Shape_138 npts=48 mInterval=30 mult=(file=data\load_data\load138.txt) useactual=true
New Loadshape.Shape_139 npts=48 mInterval=30 mult=(file=data\load_data\load139.txt) useactual=true
New Loadshape.Shape_140 npts=48 mInterval=30 mult=(file=data\load_data\load140.txt) useactual=true
New Loadshape.Shape_141 npts=48 mInterval=30 mult=(file=data\load_data\load141.txt) useactual=true
New Loadshape.Shape_142 npts=48 mInterval=30 mult=(file=data\load_data\load142.txt) useactual=true
New Loadshape.Shape_143 npts=48 mInterval=30 mult=(file=data\load_data\load143.txt) useactual=true
New Loadshape.Shape_144 npts=48 mInterval=30 mult=(file=data\load_data\load144.txt) useactual=true
New Loadshape.Shape_145 npts=48 mInterval=30 mult=(file=data\load_data\load145.txt) useactual=true
New Loadshape.Shape_146 npts=48 mInterval=30 mult=(file=data\load_data\load146.txt) useactual=true
New Loadshape.Shape_147 npts=48 mInterval=30 mult=(file=data\load_data\load147.txt) useactual=true
New Loadshape.Shape_148 npts=48 mInterval=30 mult=(file=data\load_data\load148.txt) useactual=true
New Loadshape.Shape_149 npts=48 mInterval=30 mult=(file=data\load_data\load149.txt) useactual=true
New Loadshape.Shape_150 npts=48 mInterval=30 mult=(file=data\load_data\load150.txt) useactual=true
New Loadshape.Shape_151 npts=48 mInterval=30 mult=(file=data\load_data\load151.txt) useactual=true
New Loadshape.Shape_152 npts=48 mInterval=30 mult=(file=data\load_data\load152.txt) useactual=true
New Loadshape.Shape_153 npts=48 mInterval=30 mult=(file=data\load_data\load153.txt) useactual=true
New Loadshape.Shape_154 npts=48 mInterval=30 mult=(file=data\load_data\load154.txt) useactual=true
New Loadshape.Shape_155 npts=48 mInterval=30 mult=(file=data\load_data\load155.txt) useactual=true
New Loadshape.Shape_156 npts=48 mInterval=30 mult=(file=data\load_data\load156.txt) useactual=true
New Loadshape.Shape_157 npts=48 mInterval=30 mult=(file=data\load_data\load157.txt) useactual=true
New Loadshape.Shape_158 npts=48 mInterval=30 mult=(file=data\load_data\load158.txt) useactual=true
New Loadshape.Shape_159 npts=48 mInterval=30 mult=(file=data\load_data\load159.txt) useactual=true
New Loadshape.Shape_160 npts=48 mInterval=30 mult=(file=data\load_data\load160.txt) useactual=true
New Loadshape.Shape_161 npts=48 mInterval=30 mult=(file=data\load_data\load161.txt) useactual=true
New Loadshape.Shape_162 npts=48 mInterval=30 mult=(file=data\load_data\load162.txt) useactual=true
New Loadshape.Shape_163 npts=48 mInterval=30 mult=(file=data\load_data\load163.txt) useactual=true
New Loadshape.Shape_164 npts=48 mInterval=30 mult=(file=data\load_data\load164.txt) useactual=true
New Loadshape.Shape_165 npts=48 mInterval=30 mult=(file=data\load_data\load165.txt) useactual=true
